FoamFile
{
    version 2.0;
    format ascii;
    class dictionary;
    object mechanicalProperties;
}

planeStress no;
mechanical
(
 PDMS
 {
  type fiveParameterMooneyRivlinElastic;
  rho rho [1 -3 0 0 0 0 0] 970.0;
  coefficientScale 1000000.0;
  C10 C10 [1 -1 -2 0 0 0 0] 1.7668;
  C01 C01 [1 -1 -2 0 0 0 0] -1.3777;
  C20 C20 [1 -1 -2 0 0 0 0] 0.5064;
  C11 C11 [1 -1 -2 0 0 0 0] -0.0468;
  C02 C02 [1 -1 -2 0 0 0 0] 0.0041;
  bulkModulus bulkModulus [1 -1 -2 0 0 0 0] 3631600.0;
  solvePressureEqn yes;
  pressureSmoothingScaleFactor 100;
  // K/mu0=4.666666666666667; K/mu0=14/3 gives nu=0.4.
  // Experimental fit metadata only: R2=0.9972, NRMSE=0.0136
 }
);
