/*--------------------------------*- C++ -*----------------------------------*\
| =========                 |                                                 |
| \\      /  F ield         | OpenFOAM: The Open Source CFD Toolbox           |
|  \\    /   O peration     | Version:  2512                                  |
|   \\  /    A nd           | Website:  www.openfoam.com                      |
|    \\/     M anipulation  |                                                 |
\*---------------------------------------------------------------------------*/
FoamFile
{
    version     2.0;
    format      ascii;
    arch        "LSB;label=32;scalar=64";
    class       dictionary;
    location    "constant/solid";
    object      mechanicalProperties.withDefaultValues;
}
// * * * * * * * * * * * * * * * * * * * * * * * * * * * * * * * * * * * * * //

planeStress     no;

mechanical      1 ( PDMS { type neoHookeanElastic ; rho rho [ 1 -3 0 0 0 0 0 ] 970 ; mu mu [ 1 -1 -2 0 0 0 0 ] 778200 ; K K [ 1 -1 -2 0 0 0 0 ] 3631600 ; solvePressureEqn false ; pressureSmoothingScaleFactor 100 ; } ; );


// ************************************************************************* //
